<?xml version="1.0" encoding="UTF-8"?>

<!-- generated on 2025-03-20 23:12:10 by Eclipse SUMO netconvert Version 1.22.0
<netconvertConfiguration xmlns:xsi="http://www.w3.org/2001/XMLSchema-instance" xsi:noNamespaceSchemaLocation="http://sumo.dlr.de/xsd/netconvertConfiguration.xsd">

    <input>
        <sumo-net-file value="environment.net.xml"/>
    </input>

    <output>
        <plain-output-prefix value="output"/>
    </output>

    <processing>
        <geometry.min-radius.fix.railways value="false"/>
        <geometry.max-grade.fix value="false"/>
        <offset.disable-normalization value="true"/>
        <lefthand value="0"/>
    </processing>

    <junctions>
        <no-turnarounds value="true"/>
        <junctions.corner-detail value="5"/>
        <junctions.limit-turn-speed value="5.50"/>
        <rectangular-lane-cut value="0"/>
    </junctions>

    <pedestrian>
        <walkingareas value="0"/>
    </pedestrian>

</netconvertConfiguration>
-->

<edges version="1.20" xmlns:xsi="http://www.w3.org/2001/XMLSchema-instance" xsi:noNamespaceSchemaLocation="http://sumo.dlr.de/xsd/edges_file.xsd">
    <edge id="E2TL" from="DE" to="TL" priority="-1" numLanes="4" speed="13.89" length="750.00"/>
    <edge id="N2TL" from="DN" to="TL" priority="-1" numLanes="4" speed="13.89" length="750.00"/>
    <edge id="S2TL" from="DS" to="TL" priority="-1" numLanes="4" speed="13.89" length="750.00"/>
    <edge id="TL2E" from="TL" to="DE" priority="-1" numLanes="4" speed="13.89" length="750.00"/>
    <edge id="TL2N" from="TL" to="DN" priority="-1" numLanes="4" speed="13.89" length="750.00"/>
    <edge id="TL2S" from="TL" to="DS" priority="-1" numLanes="4" speed="13.89" length="750.00"/>
    <edge id="TL2W" from="TL" to="DW" priority="-1" numLanes="4" speed="13.89" length="750.00"/>
    <edge id="W2TL" from="DW" to="TL" priority="-1" numLanes="4" speed="13.89" length="750.00"/>
</edges>
