<?xml version="1.0" encoding="UTF-8"?>

<!-- generated on 2025-03-20 23:12:10 by Eclipse SUMO netconvert Version 1.22.0
<netconvertConfiguration xmlns:xsi="http://www.w3.org/2001/XMLSchema-instance" xsi:noNamespaceSchemaLocation="http://sumo.dlr.de/xsd/netconvertConfiguration.xsd">

    <input>
        <sumo-net-file value="environment.net.xml"/>
    </input>

    <output>
        <plain-output-prefix value="output"/>
    </output>

    <processing>
        <geometry.min-radius.fix.railways value="false"/>
        <geometry.max-grade.fix value="false"/>
        <offset.disable-normalization value="true"/>
        <lefthand value="0"/>
    </processing>

    <junctions>
        <no-turnarounds value="true"/>
        <junctions.corner-detail value="5"/>
        <junctions.limit-turn-speed value="5.50"/>
        <rectangular-lane-cut value="0"/>
    </junctions>

    <pedestrian>
        <walkingareas value="0"/>
    </pedestrian>

</netconvertConfiguration>
-->

<nodes version="1.20" xmlns:xsi="http://www.w3.org/2001/XMLSchema-instance" xsi:noNamespaceSchemaLocation="http://sumo.dlr.de/xsd/nodes_file.xsd">
    <location netOffset="0.00,0.00" convBoundary="-750.00,-750.00,750.00,750.00" origBoundary="-10000000000.00,-10000000000.00,10000000000.00,10000000000.00" projParameter="!"/>

    <node id="DE" x="750.00" y="0.00" type="dead_end"/>
    <node id="DN" x="0.00" y="750.00" type="dead_end"/>
    <node id="DS" x="0.00" y="-750.00" type="dead_end"/>
    <node id="DW" x="-750.00" y="0.00" type="dead_end"/>
    <node id="TL" x="0.00" y="0.00" type="traffic_light" tl="TL"/>
</nodes>
