<?xml version="1.0" encoding="UTF-8"?>

<!-- generated on 2025-03-20 23:12:10 by Eclipse SUMO netconvert Version 1.22.0
<netconvertConfiguration xmlns:xsi="http://www.w3.org/2001/XMLSchema-instance" xsi:noNamespaceSchemaLocation="http://sumo.dlr.de/xsd/netconvertConfiguration.xsd">

    <input>
        <sumo-net-file value="environment.net.xml"/>
    </input>

    <output>
        <plain-output-prefix value="output"/>
    </output>

    <processing>
        <geometry.min-radius.fix.railways value="false"/>
        <geometry.max-grade.fix value="false"/>
        <offset.disable-normalization value="true"/>
        <lefthand value="0"/>
    </processing>

    <junctions>
        <no-turnarounds value="true"/>
        <junctions.corner-detail value="5"/>
        <junctions.limit-turn-speed value="5.50"/>
        <rectangular-lane-cut value="0"/>
    </junctions>

    <pedestrian>
        <walkingareas value="0"/>
    </pedestrian>

</netconvertConfiguration>
-->

<tlLogics version="1.20" xmlns:xsi="http://www.w3.org/2001/XMLSchema-instance" xsi:noNamespaceSchemaLocation="http://sumo.dlr.de/xsd/tllogic_file.xsd">
    <tlLogic id="TL" type="static" programID="0" offset="0">
        <phase duration="100" state="GGGGrrrrrrGGGGrrrrrr"/>
        <phase duration="100" state="yyyyrrrrrryyyyrrrrrr"/>
        <phase duration="100" state="rrrrGrrrrrrrrrGrrrrr"/>
        <phase duration="100" state="rrrryrrrrrrrrryrrrrr"/>
        <phase duration="100" state="rrrrrGGGGrrrrrrGGGGr"/>
        <phase duration="100" state="rrrrryyyyrrrrrryyyyr"/>
        <phase duration="100" state="rrrrrrrrrGrrrrrrrrrG"/>
        <phase duration="100" state="rrrrrrrrryrrrrrrrrry"/>
    </tlLogic>

    <connection from="E2TL" to="TL2N" fromLane="0" toLane="0" tl="TL" linkIndex="5"/>
    <connection from="E2TL" to="TL2W" fromLane="0" toLane="0" tl="TL" linkIndex="6"/>
    <connection from="E2TL" to="TL2W" fromLane="1" toLane="1" tl="TL" linkIndex="7"/>
    <connection from="E2TL" to="TL2W" fromLane="2" toLane="2" tl="TL" linkIndex="8"/>
    <connection from="E2TL" to="TL2S" fromLane="3" toLane="3" tl="TL" linkIndex="9"/>
    <connection from="N2TL" to="TL2W" fromLane="0" toLane="0" tl="TL" linkIndex="0"/>
    <connection from="N2TL" to="TL2S" fromLane="0" toLane="0" tl="TL" linkIndex="1"/>
    <connection from="N2TL" to="TL2S" fromLane="1" toLane="1" tl="TL" linkIndex="2"/>
    <connection from="N2TL" to="TL2S" fromLane="2" toLane="2" tl="TL" linkIndex="3"/>
    <connection from="N2TL" to="TL2E" fromLane="3" toLane="3" tl="TL" linkIndex="4"/>
    <connection from="S2TL" to="TL2E" fromLane="0" toLane="0" tl="TL" linkIndex="10"/>
    <connection from="S2TL" to="TL2N" fromLane="0" toLane="0" tl="TL" linkIndex="11"/>
    <connection from="S2TL" to="TL2N" fromLane="1" toLane="1" tl="TL" linkIndex="12"/>
    <connection from="S2TL" to="TL2N" fromLane="2" toLane="2" tl="TL" linkIndex="13"/>
    <connection from="S2TL" to="TL2W" fromLane="3" toLane="3" tl="TL" linkIndex="14"/>
    <connection from="W2TL" to="TL2S" fromLane="0" toLane="0" tl="TL" linkIndex="15"/>
    <connection from="W2TL" to="TL2E" fromLane="0" toLane="0" tl="TL" linkIndex="16"/>
    <connection from="W2TL" to="TL2E" fromLane="1" toLane="1" tl="TL" linkIndex="17"/>
    <connection from="W2TL" to="TL2E" fromLane="2" toLane="2" tl="TL" linkIndex="18"/>
    <connection from="W2TL" to="TL2N" fromLane="3" toLane="3" tl="TL" linkIndex="19"/>
</tlLogics>
