<?xml version="1.0" encoding="UTF-8"?>

<!-- generated on 2025-03-20 23:12:10 by Eclipse SUMO netconvert Version 1.22.0
<netconvertConfiguration xmlns:xsi="http://www.w3.org/2001/XMLSchema-instance" xsi:noNamespaceSchemaLocation="http://sumo.dlr.de/xsd/netconvertConfiguration.xsd">

    <input>
        <sumo-net-file value="environment.net.xml"/>
    </input>

    <output>
        <plain-output-prefix value="output"/>
    </output>

    <processing>
        <geometry.min-radius.fix.railways value="false"/>
        <geometry.max-grade.fix value="false"/>
        <offset.disable-normalization value="true"/>
        <lefthand value="0"/>
    </processing>

    <junctions>
        <no-turnarounds value="true"/>
        <junctions.corner-detail value="5"/>
        <junctions.limit-turn-speed value="5.50"/>
        <rectangular-lane-cut value="0"/>
    </junctions>

    <pedestrian>
        <walkingareas value="0"/>
    </pedestrian>

</netconvertConfiguration>
-->

<connections version="1.20" xmlns:xsi="http://www.w3.org/2001/XMLSchema-instance" xsi:noNamespaceSchemaLocation="http://sumo.dlr.de/xsd/connections_file.xsd">
    <connection from="E2TL" to="TL2N" fromLane="0" toLane="0"/>
    <connection from="E2TL" to="TL2W" fromLane="0" toLane="0"/>
    <connection from="E2TL" to="TL2W" fromLane="1" toLane="1"/>
    <connection from="E2TL" to="TL2W" fromLane="2" toLane="2"/>
    <connection from="E2TL" to="TL2S" fromLane="3" toLane="3"/>

    <connection from="N2TL" to="TL2W" fromLane="0" toLane="0"/>
    <connection from="N2TL" to="TL2S" fromLane="0" toLane="0"/>
    <connection from="N2TL" to="TL2S" fromLane="1" toLane="1"/>
    <connection from="N2TL" to="TL2S" fromLane="2" toLane="2"/>
    <connection from="N2TL" to="TL2E" fromLane="3" toLane="3"/>

    <connection from="S2TL" to="TL2E" fromLane="0" toLane="0"/>
    <connection from="S2TL" to="TL2N" fromLane="0" toLane="0"/>
    <connection from="S2TL" to="TL2N" fromLane="1" toLane="1"/>
    <connection from="S2TL" to="TL2N" fromLane="2" toLane="2"/>
    <connection from="S2TL" to="TL2W" fromLane="3" toLane="3"/>

    <connection from="TL2E"/>

    <connection from="TL2N"/>

    <connection from="TL2S"/>

    <connection from="TL2W"/>

    <connection from="W2TL" to="TL2S" fromLane="0" toLane="0"/>
    <connection from="W2TL" to="TL2E" fromLane="0" toLane="0"/>
    <connection from="W2TL" to="TL2E" fromLane="1" toLane="1"/>
    <connection from="W2TL" to="TL2E" fromLane="2" toLane="2"/>
    <connection from="W2TL" to="TL2N" fromLane="3" toLane="3"/>

</connections>
